.SUBCKT Sub_SPfile_Lb1 1 2
R1N 1 10 -50
R1P 10 11 100

A11 %vd(10 2) %vd(11, 2) xfer1
.model xfer1 xfer R_I=true table=[
+ 0Hz -0.894201 0
+ 7.5e+07Hz -0.892952 0.048473
+ 1.5e+08Hz -0.889213 0.0967726
+ 2.25e+08Hz -0.883006 0.144727
+ 3e+08Hz -0.874368 0.192166
+ 3.75e+08Hz -0.86335 0.238926
+ 4.5e+08Hz -0.850016 0.284846
+ 5.25e+08Hz -0.834444 0.329775
+ 6e+08Hz -0.816724 0.373567
+ 6.75e+08Hz -0.796957 0.416086
+ 7.5e+08Hz -0.775257 0.457209
+ 8.25e+08Hz -0.751744 0.49682
+ 9e+08Hz -0.726548 0.534818
+ 9.75e+08Hz -0.699806 0.571113
+ 1.05e+09Hz -0.67166 0.605629
+ 1.125e+09Hz -0.642256 0.638304
+ 1.2e+09Hz -0.611745 0.669089
+ 1.275e+09Hz -0.580276 0.69795
+ 1.35e+09Hz -0.548 0.724866
+ 1.425e+09Hz -0.515065 0.749831
+ 1.5e+09Hz -0.481618 0.772851
+ 1.575e+09Hz -0.447799 0.793944
+ 1.65e+09Hz -0.413745 0.813144
+ 1.725e+09Hz -0.379584 0.830491
+ 1.8e+09Hz -0.345436 0.846038
+ 1.875e+09Hz -0.311415 0.859847
+ 1.95e+09Hz -0.277622 0.871986
+ 2.025e+09Hz -0.244151 0.882531
+ 2.1e+09Hz -0.211083 0.891563
+ 2.175e+09Hz -0.17849 0.899165
+ 2.25e+09Hz -0.146433 0.905425
+ 2.325e+09Hz -0.114962 0.910431
+ 2.4e+09Hz -0.0841168 0.91427
+ 2.475e+09Hz -0.0539279 0.917028
+ 2.55e+09Hz -0.0244165 0.91879
+ 2.625e+09Hz 0.0044046 0.919636
+ 2.7e+09Hz 0.0325301 0.919642
+ 2.775e+09Hz 0.0599613 0.918882
+ 2.85e+09Hz 0.0867053 0.91742
+ 2.925e+09Hz 0.112774 0.915319
+ 3e+09Hz 0.138182 0.912634
+ 3.075e+09Hz 0.162949 0.909413
+ 3.15e+09Hz 0.187094 0.905701
+ 3.225e+09Hz 0.210638 0.901535
+ 3.3e+09Hz 0.233603 0.89695
+ 3.375e+09Hz 0.25601 0.891973
+ 3.45e+09Hz 0.277879 0.886629
+ 3.525e+09Hz 0.299229 0.880937
+ 3.6e+09Hz 0.320076 0.874915
+ 3.675e+09Hz 0.340436 0.868577
+ 3.75e+09Hz 0.360322 0.861936
+ 3.825e+09Hz 0.379743 0.855003
+ 3.9e+09Hz 0.39871 0.847787
+ 3.975e+09Hz 0.417228 0.840298
+ 4.05e+09Hz 0.435302 0.832546
+ 4.125e+09Hz 0.452935 0.824539
+ 4.2e+09Hz 0.47013 0.816288
+ 4.275e+09Hz 0.486886 0.807804
+ 4.35e+09Hz 0.503205 0.799099
+ 4.425e+09Hz 0.519086 0.790184
+ 4.5e+09Hz 0.534529 0.781075
+ 4.575e+09Hz 0.549533 0.771786
+ 4.65e+09Hz 0.564101 0.762332
+ 4.725e+09Hz 0.578232 0.75273
+ 4.8e+09Hz 0.591929 0.742996
+ 4.875e+09Hz 0.605196 0.73315
+ 4.95e+09Hz 0.618038 0.723207
+ 5.025e+09Hz 0.63046 0.713186
+ 5.1e+09Hz 0.64247 0.703104
+ 5.175e+09Hz 0.654076 0.692978
+ 5.25e+09Hz 0.66529 0.682825
+ 5.325e+09Hz 0.676122 0.672658
+ 5.4e+09Hz 0.686585 0.662494
+ 5.475e+09Hz 0.696692 0.652343
+ 5.55e+09Hz 0.706456 0.642219
+ 5.625e+09Hz 0.715894 0.63213
+ 5.7e+09Hz 0.72502 0.622086
+ 5.775e+09Hz 0.733849 0.612092
+ 5.85e+09Hz 0.742396 0.602156
+ 5.925e+09Hz 0.750677 0.592279
+ 6e+09Hz 0.758705 0.582465
+ 6.075e+09Hz 0.766494 0.572715
+ 6.15e+09Hz 0.774059 0.563028
+ 6.225e+09Hz 0.78141 0.553403
+ 6.3e+09Hz 0.788559 0.543838
+ 6.375e+09Hz 0.795516 0.534328
+ 6.45e+09Hz 0.802289 0.524872
+ 6.525e+09Hz 0.808888 0.515464
+ 6.6e+09Hz 0.815317 0.506101
+ 6.675e+09Hz 0.821584 0.496778
+ 6.75e+09Hz 0.827691 0.48749
+ 6.825e+09Hz 0.833642 0.478234
+ 6.9e+09Hz 0.83944 0.469006
+ 6.975e+09Hz 0.845086 0.459802
+ 7.05e+09Hz 0.850581 0.45062
+ 7.125e+09Hz 0.855925 0.441458
+ 7.2e+09Hz 0.861119 0.432314
+ 7.275e+09Hz 0.866161 0.423188
+ 7.35e+09Hz 0.871052 0.41408
+ 7.425e+09Hz 0.87579 0.404991
+ 7.5e+09Hz 0.880376 0.395921
+ 7.575e+09Hz 0.884808 0.386873
+ 7.65e+09Hz 0.889087 0.37785
+ 7.725e+09Hz 0.893214 0.368854
+ 7.8e+09Hz 0.897188 0.359888
+ 7.875e+09Hz 0.901012 0.350957
+ 7.95e+09Hz 0.904686 0.342064
+ 8.025e+09Hz 0.908214 0.333212
+ 8.1e+09Hz 0.911598 0.324405
+ 8.175e+09Hz 0.914842 0.315647
+ 8.25e+09Hz 0.917949 0.306942
+ 8.325e+09Hz 0.920925 0.298291
+ 8.4e+09Hz 0.923772 0.289699
+ 8.475e+09Hz 0.926497 0.281167
+ 8.55e+09Hz 0.929105 0.272696
+ 8.625e+09Hz 0.931601 0.264288
+ 8.7e+09Hz 0.93399 0.255944
+ 8.775e+09Hz 0.936278 0.247664
+ 8.85e+09Hz 0.93847 0.239447
+ 8.925e+09Hz 0.940571 0.231292
+ 9e+09Hz 0.942586 0.223198
+ 9.075e+09Hz 0.94452 0.215163
+ 9.15e+09Hz 0.946376 0.207185
+ 9.225e+09Hz 0.948159 0.199261
+ 9.3e+09Hz 0.949872 0.191389
+ 9.375e+09Hz 0.951517 0.183565
+ 9.45e+09Hz 0.953097 0.175786
+ 9.525e+09Hz 0.954614 0.16805
+ 9.6e+09Hz 0.956068 0.160353
+ 9.675e+09Hz 0.957461 0.152692
+ 9.75e+09Hz 0.958794 0.145064
+ 9.825e+09Hz 0.960065 0.137467
+ 9.9e+09Hz 0.961275 0.129899
+ 9.975e+09Hz 0.962423 0.122358
+ 1.005e+10Hz 0.963508 0.114842
+ 1.0125e+10Hz 0.96453 0.107349
+ 1.02e+10Hz 0.965486 0.0998795
+ 1.0275e+10Hz 0.966377 0.0924326
+ 1.035e+10Hz 0.967199 0.0850081
+ 1.0425e+10Hz 0.967954 0.0776063
+ 1.05e+10Hz 0.968639 0.0702279
+ 1.0575e+10Hz 0.969253 0.0628737
+ 1.065e+10Hz 0.969797 0.0555449
+ 1.0725e+10Hz 0.97027 0.0482429
+ 1.08e+10Hz 0.970671 0.0409692
+ 1.0875e+10Hz 0.971002 0.0337254
+ 1.095e+10Hz 0.971261 0.0265133
+ 1.1025e+10Hz 0.971452 0.0193345
+ 1.11e+10Hz 0.971574 0.0121907
+ 1.1175e+10Hz 0.971628 0.00508336
+ 1.125e+10Hz 0.971618 -0.00198605
+ 1.1325e+10Hz 0.971544 -0.00901636
+ 1.14e+10Hz 0.971409 -0.0160066
+ 1.1475e+10Hz 0.971215 -0.022956
+ 1.155e+10Hz 0.970964 -0.0298641
+ 1.1625e+10Hz 0.970659 -0.0367307
+ 1.17e+10Hz 0.970302 -0.0435559
+ 1.1775e+10Hz 0.969896 -0.0503403
+ 1.185e+10Hz 0.969443 -0.0570843
+ 1.1925e+10Hz 0.968945 -0.063789
+ 1.2e+10Hz 0.968404 -0.0704555
+ 1.2075e+10Hz 0.967823 -0.0770853
+ 1.215e+10Hz 0.967202 -0.0836799
+ 1.2225e+10Hz 0.966543 -0.090241
+ 1.23e+10Hz 0.965848 -0.0967705
+ 1.2375e+10Hz 0.965116 -0.10327
+ 1.245e+10Hz 0.96435 -0.109742
+ 1.2525e+10Hz 0.963548 -0.116188
+ 1.26e+10Hz 0.962711 -0.122609
+ 1.2675e+10Hz 0.961839 -0.129009
+ 1.275e+10Hz 0.960931 -0.135387
+ 1.2825e+10Hz 0.959987 -0.141745
+ 1.29e+10Hz 0.959006 -0.148085
+ 1.2975e+10Hz 0.957986 -0.154408
+ 1.305e+10Hz 0.956928 -0.160714
+ 1.3125e+10Hz 0.955828 -0.167004
+ 1.32e+10Hz 0.954687 -0.173278
+ 1.3275e+10Hz 0.953504 -0.179536
+ 1.335e+10Hz 0.952276 -0.185778
+ 1.3425e+10Hz 0.951004 -0.192003
+ 1.35e+10Hz 0.949686 -0.198211
+ 1.3575e+10Hz 0.948321 -0.204401
+ 1.365e+10Hz 0.94691 -0.210572
+ 1.3725e+10Hz 0.945451 -0.216722
+ 1.38e+10Hz 0.943944 -0.222851
+ 1.3875e+10Hz 0.942389 -0.228957
+ 1.395e+10Hz 0.940788 -0.23504
+ 1.4025e+10Hz 0.939139 -0.241098
+ 1.41e+10Hz 0.937444 -0.247129
+ 1.4175e+10Hz 0.935704 -0.253133
+ 1.425e+10Hz 0.93392 -0.259109
+ 1.4325e+10Hz 0.932092 -0.265056
+ 1.44e+10Hz 0.930223 -0.270974
+ 1.4475e+10Hz 0.928313 -0.276861
+ 1.455e+10Hz 0.926364 -0.282718
+ 1.4625e+10Hz 0.924377 -0.288545
+ 1.47e+10Hz 0.922355 -0.294342
+ 1.4775e+10Hz 0.920297 -0.300109
+ 1.485e+10Hz 0.918206 -0.305847
+ 1.4925e+10Hz 0.916083 -0.311556
+ 1.5e+10Hz 0.91393 -0.317238
+ 1.5075e+10Hz 0.911746 -0.322893
+ 1.515e+10Hz 0.909532 -0.328523
+ 1.5225e+10Hz 0.907291 -0.334129
+ 1.53e+10Hz 0.905021 -0.339712
+ 1.5375e+10Hz 0.902722 -0.345273
+ 1.545e+10Hz 0.900396 -0.350814
+ 1.5525e+10Hz 0.898042 -0.356336
+ 1.56e+10Hz 0.895659 -0.361841
+ 1.5675e+10Hz 0.893247 -0.367328
+ 1.575e+10Hz 0.890805 -0.3728
+ 1.5825e+10Hz 0.888332 -0.378256
+ 1.59e+10Hz 0.885827 -0.383699
+ 1.5975e+10Hz 0.88329 -0.389127
+ 1.605e+10Hz 0.880718 -0.394541
+ 1.6125e+10Hz 0.878112 -0.399942
+ 1.62e+10Hz 0.87547 -0.405329
+ 1.6275e+10Hz 0.87279 -0.410702
+ 1.635e+10Hz 0.870072 -0.416061
+ 1.6425e+10Hz 0.867315 -0.421404
+ 1.65e+10Hz 0.864518 -0.426731
+ 1.6575e+10Hz 0.861681 -0.432041
+ 1.665e+10Hz 0.858802 -0.437333
+ 1.6725e+10Hz 0.855883 -0.442606
+ 1.68e+10Hz 0.852921 -0.447858
+ 1.6875e+10Hz 0.849918 -0.453089
+ 1.695e+10Hz 0.846874 -0.458297
+ 1.7025e+10Hz 0.843789 -0.463482
+ 1.71e+10Hz 0.840664 -0.468641
+ 1.7175e+10Hz 0.837499 -0.473774
+ 1.725e+10Hz 0.834296 -0.478881
+ 1.7325e+10Hz 0.831054 -0.48396
+ 1.74e+10Hz 0.827776 -0.489012
+ 1.7475e+10Hz 0.824463 -0.494035
+ 1.755e+10Hz 0.821115 -0.499029
+ 1.7625e+10Hz 0.817734 -0.503995
+ 1.77e+10Hz 0.814321 -0.508933
+ 1.7775e+10Hz 0.810876 -0.513842
+ 1.785e+10Hz 0.807402 -0.518724
+ 1.7925e+10Hz 0.803899 -0.523579
+ 1.8e+10Hz 0.800367 -0.528408
+ 1.8075e+10Hz 0.796808 -0.533211
+ 1.815e+10Hz 0.793222 -0.53799
+ 1.8225e+10Hz 0.789609 -0.542746
+ 1.83e+10Hz 0.785968 -0.54748
+ 1.8375e+10Hz 0.782301 -0.552192
+ 1.845e+10Hz 0.778607 -0.556884
+ 1.8525e+10Hz 0.774885 -0.561557
+ 1.86e+10Hz 0.771135 -0.566212
+ 1.8675e+10Hz 0.767356 -0.570849
+ 1.875e+10Hz 0.763548 -0.575469
+ 1.8825e+10Hz 0.759708 -0.580072
+ 1.89e+10Hz 0.755836 -0.584659
+ 1.8975e+10Hz 0.751931 -0.58923
+ 1.905e+10Hz 0.747992 -0.593785
+ 1.9125e+10Hz 0.744018 -0.598324
+ 1.92e+10Hz 0.740007 -0.602845
+ 1.9275e+10Hz 0.735958 -0.607349
+ 1.935e+10Hz 0.731871 -0.611835
+ 1.9425e+10Hz 0.727744 -0.616301
+ 1.95e+10Hz 0.723577 -0.620747
+ 1.9575e+10Hz 0.719369 -0.625171
+ 1.965e+10Hz 0.71512 -0.629572
+ 1.9725e+10Hz 0.710829 -0.633949
+ 1.98e+10Hz 0.706497 -0.6383
+ 1.9875e+10Hz 0.702124 -0.642624
+ 1.995e+10Hz 0.69771 -0.646919
+ 2.0025e+10Hz 0.693256 -0.651185
+ 2.01e+10Hz 0.688762 -0.655421
+ 2.0175e+10Hz 0.684229 -0.659624
+ 2.025e+10Hz 0.679658 -0.663794
+ 2.0325e+10Hz 0.675051 -0.667931
+ 2.04e+10Hz 0.670408 -0.672033
+ 2.0475e+10Hz 0.665731 -0.676101
+ 2.055e+10Hz 0.661021 -0.680135
+ 2.0625e+10Hz 0.656279 -0.684133
+ 2.07e+10Hz 0.651507 -0.688097
+ 2.0775e+10Hz 0.646705 -0.692027
+ 2.085e+10Hz 0.641875 -0.695923
+ 2.0925e+10Hz 0.637017 -0.699786
+ 2.1e+10Hz 0.632132 -0.703617
+ 2.1075e+10Hz 0.627221 -0.707417
+ 2.115e+10Hz 0.622284 -0.711187
+ 2.1225e+10Hz 0.617321 -0.714927
+ 2.13e+10Hz 0.612333 -0.71864
+ 2.1375e+10Hz 0.607318 -0.722325
+ 2.145e+10Hz 0.602277 -0.725984
+ 2.1525e+10Hz 0.597208 -0.729618
+ 2.16e+10Hz 0.592112 -0.733228
+ 2.1675e+10Hz 0.586986 -0.736814
+ 2.175e+10Hz 0.581831 -0.740376
+ 2.1825e+10Hz 0.576643 -0.743915
+ 2.19e+10Hz 0.571424 -0.747431
+ 2.1975e+10Hz 0.56617 -0.750924
+ 2.205e+10Hz 0.56088 -0.754393
+ 2.2125e+10Hz 0.555554 -0.757837
+ 2.22e+10Hz 0.55019 -0.761257
+ 2.2275e+10Hz 0.544787 -0.76465
+ 2.235e+10Hz 0.539344 -0.768015
+ 2.2425e+10Hz 0.53386 -0.771351
+ 2.25e+10Hz 0.528334 -0.774656
+ 2.2575e+10Hz 0.522766 -0.777929
+ 2.265e+10Hz 0.517155 -0.781168
+ 2.2725e+10Hz 0.511503 -0.784371
+ 2.28e+10Hz 0.505808 -0.787536
+ 2.2875e+10Hz 0.500072 -0.790662
+ 2.295e+10Hz 0.494295 -0.793746
+ 2.3025e+10Hz 0.488478 -0.796787
+ 2.31e+10Hz 0.482622 -0.799784
+ 2.3175e+10Hz 0.476729 -0.802735
+ 2.325e+10Hz 0.4708 -0.805639
+ 2.3325e+10Hz 0.464838 -0.808496
+ 2.34e+10Hz 0.458842 -0.811304
+ 2.3475e+10Hz 0.452816 -0.814064
+ 2.355e+10Hz 0.446761 -0.816774
+ 2.3625e+10Hz 0.440679 -0.819437
+ 2.37e+10Hz 0.434571 -0.82205
+ 2.3775e+10Hz 0.428439 -0.824617
+ 2.385e+10Hz 0.422284 -0.827136
+ 2.3925e+10Hz 0.416107 -0.82961
+ 2.4e+10Hz 0.40991 -0.83204
+ 2.4075e+10Hz 0.403693 -0.834426
+ 2.415e+10Hz 0.397455 -0.83677
+ 2.4225e+10Hz 0.391198 -0.839074
+ 2.43e+10Hz 0.384922 -0.84134
+ 2.4375e+10Hz 0.378625 -0.843567
+ 2.445e+10Hz 0.372307 -0.845758
+ 2.4525e+10Hz 0.365966 -0.847914
+ 2.46e+10Hz 0.359603 -0.850035
+ 2.4675e+10Hz 0.353215 -0.852122
+ 2.475e+10Hz 0.346801 -0.854176
+ 2.4825e+10Hz 0.340358 -0.856197
+ 2.49e+10Hz 0.333886 -0.858184
+ 2.4975e+10Hz 0.327382 -0.860137
+ 2.505e+10Hz 0.320845 -0.862055
+ 2.5125e+10Hz 0.314273 -0.863936
+ 2.52e+10Hz 0.307665 -0.86578
+ 2.5275e+10Hz 0.301018 -0.867585
+ 2.535e+10Hz 0.294333 -0.869347
+ 2.5425e+10Hz 0.287607 -0.871066
+ 2.55e+10Hz 0.280841 -0.872739
+ 2.5575e+10Hz 0.274034 -0.874362
+ 2.565e+10Hz 0.267187 -0.875934
+ 2.5725e+10Hz 0.2603 -0.877452
+ 2.58e+10Hz 0.253373 -0.878912
+ 2.5875e+10Hz 0.246409 -0.880313
+ 2.595e+10Hz 0.239409 -0.881652
+ 2.6025e+10Hz 0.232374 -0.882927
+ 2.61e+10Hz 0.225307 -0.884135
+ 2.6175e+10Hz 0.21821 -0.885275
+ 2.625e+10Hz 0.211087 -0.886347
+ 2.6325e+10Hz 0.203939 -0.887348
+ 2.64e+10Hz 0.196771 -0.888279
+ 2.6475e+10Hz 0.189585 -0.88914
+ 2.655e+10Hz 0.182383 -0.88993
+ 2.6625e+10Hz 0.175169 -0.89065
+ 2.67e+10Hz 0.167945 -0.891302
+ 2.6775e+10Hz 0.160714 -0.891888
+ 2.685e+10Hz 0.153477 -0.892408
+ 2.6925e+10Hz 0.146237 -0.892865
+ 2.7e+10Hz 0.138994 -0.893262
+ 2.7075e+10Hz 0.13175 -0.893601
+ 2.715e+10Hz 0.124505 -0.893885
+ 2.7225e+10Hz 0.11726 -0.894115
+ 2.73e+10Hz 0.110012 -0.894295
+ 2.7375e+10Hz 0.102762 -0.894427
+ 2.745e+10Hz 0.0955073 -0.894513
+ 2.7525e+10Hz 0.0882469 -0.894556
+ 2.76e+10Hz 0.0809783 -0.894555
+ 2.7675e+10Hz 0.073699 -0.894513
+ 2.775e+10Hz 0.0664062 -0.894429
+ 2.7825e+10Hz 0.0590969 -0.894305
+ 2.79e+10Hz 0.0517682 -0.894138
+ 2.7975e+10Hz 0.0444171 -0.893929
+ 2.805e+10Hz 0.0370408 -0.893676
+ 2.8125e+10Hz 0.0296366 -0.893375
+ 2.82e+10Hz 0.0222022 -0.893025
+ 2.8275e+10Hz 0.0147356 -0.892623
+ 2.835e+10Hz 0.00723522 -0.892164
+ 2.8425e+10Hz -0.000299822 -0.891644
+ 2.85e+10Hz -0.00786994 -0.89106
+ 2.8575e+10Hz -0.0154749 -0.890407
+ 2.865e+10Hz -0.0231137 -0.88968
+ 2.8725e+10Hz -0.0307848 -0.888875
+ 2.88e+10Hz -0.038486 -0.887988
+ 2.8875e+10Hz -0.0462141 -0.887014
+ 2.895e+10Hz -0.0539658 -0.88595
+ 2.9025e+10Hz -0.0617367 -0.884792
+ 2.91e+10Hz -0.0695223 -0.883538
+ 2.9175e+10Hz -0.0773174 -0.882186
+ 2.925e+10Hz -0.0851168 -0.880735
+ 2.9325e+10Hz -0.0929147 -0.879183
+ 2.94e+10Hz -0.100706 -0.877532
+ 2.9475e+10Hz -0.108484 -0.875781
+ 2.955e+10Hz -0.116244 -0.873934
+ 2.9625e+10Hz -0.123981 -0.871993
+ 2.97e+10Hz -0.13169 -0.869961
+ 2.9775e+10Hz -0.139367 -0.867842
+ 2.985e+10Hz -0.147008 -0.865641
+ 2.9925e+10Hz -0.154612 -0.863363
+ 3e+10Hz -0.162175 -0.861013
+ ]

.ENDS
.SUBCKT Sub_SPfile_Lb2 1 2
R1N 1 10 -50
R1P 10 11 100

A11 %vd(10 2) %vd(11, 2) xfer1
.model xfer1 xfer R_I=true table=[
+ 0Hz -0.894201 0
+ 7.5e+07Hz -0.892952 0.048473
+ 1.5e+08Hz -0.889213 0.0967726
+ 2.25e+08Hz -0.883006 0.144727
+ 3e+08Hz -0.874368 0.192166
+ 3.75e+08Hz -0.86335 0.238926
+ 4.5e+08Hz -0.850016 0.284846
+ 5.25e+08Hz -0.834444 0.329775
+ 6e+08Hz -0.816724 0.373567
+ 6.75e+08Hz -0.796957 0.416086
+ 7.5e+08Hz -0.775257 0.457209
+ 8.25e+08Hz -0.751744 0.49682
+ 9e+08Hz -0.726548 0.534818
+ 9.75e+08Hz -0.699806 0.571113
+ 1.05e+09Hz -0.67166 0.605629
+ 1.125e+09Hz -0.642256 0.638304
+ 1.2e+09Hz -0.611745 0.669089
+ 1.275e+09Hz -0.580276 0.69795
+ 1.35e+09Hz -0.548 0.724866
+ 1.425e+09Hz -0.515065 0.749831
+ 1.5e+09Hz -0.481618 0.772851
+ 1.575e+09Hz -0.447799 0.793944
+ 1.65e+09Hz -0.413745 0.813144
+ 1.725e+09Hz -0.379584 0.830491
+ 1.8e+09Hz -0.345436 0.846038
+ 1.875e+09Hz -0.311415 0.859847
+ 1.95e+09Hz -0.277622 0.871986
+ 2.025e+09Hz -0.244151 0.882531
+ 2.1e+09Hz -0.211083 0.891563
+ 2.175e+09Hz -0.17849 0.899165
+ 2.25e+09Hz -0.146433 0.905425
+ 2.325e+09Hz -0.114962 0.910431
+ 2.4e+09Hz -0.0841168 0.91427
+ 2.475e+09Hz -0.0539279 0.917028
+ 2.55e+09Hz -0.0244165 0.91879
+ 2.625e+09Hz 0.0044046 0.919636
+ 2.7e+09Hz 0.0325301 0.919642
+ 2.775e+09Hz 0.0599613 0.918882
+ 2.85e+09Hz 0.0867053 0.91742
+ 2.925e+09Hz 0.112774 0.915319
+ 3e+09Hz 0.138182 0.912634
+ 3.075e+09Hz 0.162949 0.909413
+ 3.15e+09Hz 0.187094 0.905701
+ 3.225e+09Hz 0.210638 0.901535
+ 3.3e+09Hz 0.233603 0.89695
+ 3.375e+09Hz 0.25601 0.891973
+ 3.45e+09Hz 0.277879 0.886629
+ 3.525e+09Hz 0.299229 0.880937
+ 3.6e+09Hz 0.320076 0.874915
+ 3.675e+09Hz 0.340436 0.868577
+ 3.75e+09Hz 0.360322 0.861936
+ 3.825e+09Hz 0.379743 0.855003
+ 3.9e+09Hz 0.39871 0.847787
+ 3.975e+09Hz 0.417228 0.840298
+ 4.05e+09Hz 0.435302 0.832546
+ 4.125e+09Hz 0.452935 0.824539
+ 4.2e+09Hz 0.47013 0.816288
+ 4.275e+09Hz 0.486886 0.807804
+ 4.35e+09Hz 0.503205 0.799099
+ 4.425e+09Hz 0.519086 0.790184
+ 4.5e+09Hz 0.534529 0.781075
+ 4.575e+09Hz 0.549533 0.771786
+ 4.65e+09Hz 0.564101 0.762332
+ 4.725e+09Hz 0.578232 0.75273
+ 4.8e+09Hz 0.591929 0.742996
+ 4.875e+09Hz 0.605196 0.73315
+ 4.95e+09Hz 0.618038 0.723207
+ 5.025e+09Hz 0.63046 0.713186
+ 5.1e+09Hz 0.64247 0.703104
+ 5.175e+09Hz 0.654076 0.692978
+ 5.25e+09Hz 0.66529 0.682825
+ 5.325e+09Hz 0.676122 0.672658
+ 5.4e+09Hz 0.686585 0.662494
+ 5.475e+09Hz 0.696692 0.652343
+ 5.55e+09Hz 0.706456 0.642219
+ 5.625e+09Hz 0.715894 0.63213
+ 5.7e+09Hz 0.72502 0.622086
+ 5.775e+09Hz 0.733849 0.612092
+ 5.85e+09Hz 0.742396 0.602156
+ 5.925e+09Hz 0.750677 0.592279
+ 6e+09Hz 0.758705 0.582465
+ 6.075e+09Hz 0.766494 0.572715
+ 6.15e+09Hz 0.774059 0.563028
+ 6.225e+09Hz 0.78141 0.553403
+ 6.3e+09Hz 0.788559 0.543838
+ 6.375e+09Hz 0.795516 0.534328
+ 6.45e+09Hz 0.802289 0.524872
+ 6.525e+09Hz 0.808888 0.515464
+ 6.6e+09Hz 0.815317 0.506101
+ 6.675e+09Hz 0.821584 0.496778
+ 6.75e+09Hz 0.827691 0.48749
+ 6.825e+09Hz 0.833642 0.478234
+ 6.9e+09Hz 0.83944 0.469006
+ 6.975e+09Hz 0.845086 0.459802
+ 7.05e+09Hz 0.850581 0.45062
+ 7.125e+09Hz 0.855925 0.441458
+ 7.2e+09Hz 0.861119 0.432314
+ 7.275e+09Hz 0.866161 0.423188
+ 7.35e+09Hz 0.871052 0.41408
+ 7.425e+09Hz 0.87579 0.404991
+ 7.5e+09Hz 0.880376 0.395921
+ 7.575e+09Hz 0.884808 0.386873
+ 7.65e+09Hz 0.889087 0.37785
+ 7.725e+09Hz 0.893214 0.368854
+ 7.8e+09Hz 0.897188 0.359888
+ 7.875e+09Hz 0.901012 0.350957
+ 7.95e+09Hz 0.904686 0.342064
+ 8.025e+09Hz 0.908214 0.333212
+ 8.1e+09Hz 0.911598 0.324405
+ 8.175e+09Hz 0.914842 0.315647
+ 8.25e+09Hz 0.917949 0.306942
+ 8.325e+09Hz 0.920925 0.298291
+ 8.4e+09Hz 0.923772 0.289699
+ 8.475e+09Hz 0.926497 0.281167
+ 8.55e+09Hz 0.929105 0.272696
+ 8.625e+09Hz 0.931601 0.264288
+ 8.7e+09Hz 0.93399 0.255944
+ 8.775e+09Hz 0.936278 0.247664
+ 8.85e+09Hz 0.93847 0.239447
+ 8.925e+09Hz 0.940571 0.231292
+ 9e+09Hz 0.942586 0.223198
+ 9.075e+09Hz 0.94452 0.215163
+ 9.15e+09Hz 0.946376 0.207185
+ 9.225e+09Hz 0.948159 0.199261
+ 9.3e+09Hz 0.949872 0.191389
+ 9.375e+09Hz 0.951517 0.183565
+ 9.45e+09Hz 0.953097 0.175786
+ 9.525e+09Hz 0.954614 0.16805
+ 9.6e+09Hz 0.956068 0.160353
+ 9.675e+09Hz 0.957461 0.152692
+ 9.75e+09Hz 0.958794 0.145064
+ 9.825e+09Hz 0.960065 0.137467
+ 9.9e+09Hz 0.961275 0.129899
+ 9.975e+09Hz 0.962423 0.122358
+ 1.005e+10Hz 0.963508 0.114842
+ 1.0125e+10Hz 0.96453 0.107349
+ 1.02e+10Hz 0.965486 0.0998795
+ 1.0275e+10Hz 0.966377 0.0924326
+ 1.035e+10Hz 0.967199 0.0850081
+ 1.0425e+10Hz 0.967954 0.0776063
+ 1.05e+10Hz 0.968639 0.0702279
+ 1.0575e+10Hz 0.969253 0.0628737
+ 1.065e+10Hz 0.969797 0.0555449
+ 1.0725e+10Hz 0.97027 0.0482429
+ 1.08e+10Hz 0.970671 0.0409692
+ 1.0875e+10Hz 0.971002 0.0337254
+ 1.095e+10Hz 0.971261 0.0265133
+ 1.1025e+10Hz 0.971452 0.0193345
+ 1.11e+10Hz 0.971574 0.0121907
+ 1.1175e+10Hz 0.971628 0.00508336
+ 1.125e+10Hz 0.971618 -0.00198605
+ 1.1325e+10Hz 0.971544 -0.00901636
+ 1.14e+10Hz 0.971409 -0.0160066
+ 1.1475e+10Hz 0.971215 -0.022956
+ 1.155e+10Hz 0.970964 -0.0298641
+ 1.1625e+10Hz 0.970659 -0.0367307
+ 1.17e+10Hz 0.970302 -0.0435559
+ 1.1775e+10Hz 0.969896 -0.0503403
+ 1.185e+10Hz 0.969443 -0.0570843
+ 1.1925e+10Hz 0.968945 -0.063789
+ 1.2e+10Hz 0.968404 -0.0704555
+ 1.2075e+10Hz 0.967823 -0.0770853
+ 1.215e+10Hz 0.967202 -0.0836799
+ 1.2225e+10Hz 0.966543 -0.090241
+ 1.23e+10Hz 0.965848 -0.0967705
+ 1.2375e+10Hz 0.965116 -0.10327
+ 1.245e+10Hz 0.96435 -0.109742
+ 1.2525e+10Hz 0.963548 -0.116188
+ 1.26e+10Hz 0.962711 -0.122609
+ 1.2675e+10Hz 0.961839 -0.129009
+ 1.275e+10Hz 0.960931 -0.135387
+ 1.2825e+10Hz 0.959987 -0.141745
+ 1.29e+10Hz 0.959006 -0.148085
+ 1.2975e+10Hz 0.957986 -0.154408
+ 1.305e+10Hz 0.956928 -0.160714
+ 1.3125e+10Hz 0.955828 -0.167004
+ 1.32e+10Hz 0.954687 -0.173278
+ 1.3275e+10Hz 0.953504 -0.179536
+ 1.335e+10Hz 0.952276 -0.185778
+ 1.3425e+10Hz 0.951004 -0.192003
+ 1.35e+10Hz 0.949686 -0.198211
+ 1.3575e+10Hz 0.948321 -0.204401
+ 1.365e+10Hz 0.94691 -0.210572
+ 1.3725e+10Hz 0.945451 -0.216722
+ 1.38e+10Hz 0.943944 -0.222851
+ 1.3875e+10Hz 0.942389 -0.228957
+ 1.395e+10Hz 0.940788 -0.23504
+ 1.4025e+10Hz 0.939139 -0.241098
+ 1.41e+10Hz 0.937444 -0.247129
+ 1.4175e+10Hz 0.935704 -0.253133
+ 1.425e+10Hz 0.93392 -0.259109
+ 1.4325e+10Hz 0.932092 -0.265056
+ 1.44e+10Hz 0.930223 -0.270974
+ 1.4475e+10Hz 0.928313 -0.276861
+ 1.455e+10Hz 0.926364 -0.282718
+ 1.4625e+10Hz 0.924377 -0.288545
+ 1.47e+10Hz 0.922355 -0.294342
+ 1.4775e+10Hz 0.920297 -0.300109
+ 1.485e+10Hz 0.918206 -0.305847
+ 1.4925e+10Hz 0.916083 -0.311556
+ 1.5e+10Hz 0.91393 -0.317238
+ 1.5075e+10Hz 0.911746 -0.322893
+ 1.515e+10Hz 0.909532 -0.328523
+ 1.5225e+10Hz 0.907291 -0.334129
+ 1.53e+10Hz 0.905021 -0.339712
+ 1.5375e+10Hz 0.902722 -0.345273
+ 1.545e+10Hz 0.900396 -0.350814
+ 1.5525e+10Hz 0.898042 -0.356336
+ 1.56e+10Hz 0.895659 -0.361841
+ 1.5675e+10Hz 0.893247 -0.367328
+ 1.575e+10Hz 0.890805 -0.3728
+ 1.5825e+10Hz 0.888332 -0.378256
+ 1.59e+10Hz 0.885827 -0.383699
+ 1.5975e+10Hz 0.88329 -0.389127
+ 1.605e+10Hz 0.880718 -0.394541
+ 1.6125e+10Hz 0.878112 -0.399942
+ 1.62e+10Hz 0.87547 -0.405329
+ 1.6275e+10Hz 0.87279 -0.410702
+ 1.635e+10Hz 0.870072 -0.416061
+ 1.6425e+10Hz 0.867315 -0.421404
+ 1.65e+10Hz 0.864518 -0.426731
+ 1.6575e+10Hz 0.861681 -0.432041
+ 1.665e+10Hz 0.858802 -0.437333
+ 1.6725e+10Hz 0.855883 -0.442606
+ 1.68e+10Hz 0.852921 -0.447858
+ 1.6875e+10Hz 0.849918 -0.453089
+ 1.695e+10Hz 0.846874 -0.458297
+ 1.7025e+10Hz 0.843789 -0.463482
+ 1.71e+10Hz 0.840664 -0.468641
+ 1.7175e+10Hz 0.837499 -0.473774
+ 1.725e+10Hz 0.834296 -0.478881
+ 1.7325e+10Hz 0.831054 -0.48396
+ 1.74e+10Hz 0.827776 -0.489012
+ 1.7475e+10Hz 0.824463 -0.494035
+ 1.755e+10Hz 0.821115 -0.499029
+ 1.7625e+10Hz 0.817734 -0.503995
+ 1.77e+10Hz 0.814321 -0.508933
+ 1.7775e+10Hz 0.810876 -0.513842
+ 1.785e+10Hz 0.807402 -0.518724
+ 1.7925e+10Hz 0.803899 -0.523579
+ 1.8e+10Hz 0.800367 -0.528408
+ 1.8075e+10Hz 0.796808 -0.533211
+ 1.815e+10Hz 0.793222 -0.53799
+ 1.8225e+10Hz 0.789609 -0.542746
+ 1.83e+10Hz 0.785968 -0.54748
+ 1.8375e+10Hz 0.782301 -0.552192
+ 1.845e+10Hz 0.778607 -0.556884
+ 1.8525e+10Hz 0.774885 -0.561557
+ 1.86e+10Hz 0.771135 -0.566212
+ 1.8675e+10Hz 0.767356 -0.570849
+ 1.875e+10Hz 0.763548 -0.575469
+ 1.8825e+10Hz 0.759708 -0.580072
+ 1.89e+10Hz 0.755836 -0.584659
+ 1.8975e+10Hz 0.751931 -0.58923
+ 1.905e+10Hz 0.747992 -0.593785
+ 1.9125e+10Hz 0.744018 -0.598324
+ 1.92e+10Hz 0.740007 -0.602845
+ 1.9275e+10Hz 0.735958 -0.607349
+ 1.935e+10Hz 0.731871 -0.611835
+ 1.9425e+10Hz 0.727744 -0.616301
+ 1.95e+10Hz 0.723577 -0.620747
+ 1.9575e+10Hz 0.719369 -0.625171
+ 1.965e+10Hz 0.71512 -0.629572
+ 1.9725e+10Hz 0.710829 -0.633949
+ 1.98e+10Hz 0.706497 -0.6383
+ 1.9875e+10Hz 0.702124 -0.642624
+ 1.995e+10Hz 0.69771 -0.646919
+ 2.0025e+10Hz 0.693256 -0.651185
+ 2.01e+10Hz 0.688762 -0.655421
+ 2.0175e+10Hz 0.684229 -0.659624
+ 2.025e+10Hz 0.679658 -0.663794
+ 2.0325e+10Hz 0.675051 -0.667931
+ 2.04e+10Hz 0.670408 -0.672033
+ 2.0475e+10Hz 0.665731 -0.676101
+ 2.055e+10Hz 0.661021 -0.680135
+ 2.0625e+10Hz 0.656279 -0.684133
+ 2.07e+10Hz 0.651507 -0.688097
+ 2.0775e+10Hz 0.646705 -0.692027
+ 2.085e+10Hz 0.641875 -0.695923
+ 2.0925e+10Hz 0.637017 -0.699786
+ 2.1e+10Hz 0.632132 -0.703617
+ 2.1075e+10Hz 0.627221 -0.707417
+ 2.115e+10Hz 0.622284 -0.711187
+ 2.1225e+10Hz 0.617321 -0.714927
+ 2.13e+10Hz 0.612333 -0.71864
+ 2.1375e+10Hz 0.607318 -0.722325
+ 2.145e+10Hz 0.602277 -0.725984
+ 2.1525e+10Hz 0.597208 -0.729618
+ 2.16e+10Hz 0.592112 -0.733228
+ 2.1675e+10Hz 0.586986 -0.736814
+ 2.175e+10Hz 0.581831 -0.740376
+ 2.1825e+10Hz 0.576643 -0.743915
+ 2.19e+10Hz 0.571424 -0.747431
+ 2.1975e+10Hz 0.56617 -0.750924
+ 2.205e+10Hz 0.56088 -0.754393
+ 2.2125e+10Hz 0.555554 -0.757837
+ 2.22e+10Hz 0.55019 -0.761257
+ 2.2275e+10Hz 0.544787 -0.76465
+ 2.235e+10Hz 0.539344 -0.768015
+ 2.2425e+10Hz 0.53386 -0.771351
+ 2.25e+10Hz 0.528334 -0.774656
+ 2.2575e+10Hz 0.522766 -0.777929
+ 2.265e+10Hz 0.517155 -0.781168
+ 2.2725e+10Hz 0.511503 -0.784371
+ 2.28e+10Hz 0.505808 -0.787536
+ 2.2875e+10Hz 0.500072 -0.790662
+ 2.295e+10Hz 0.494295 -0.793746
+ 2.3025e+10Hz 0.488478 -0.796787
+ 2.31e+10Hz 0.482622 -0.799784
+ 2.3175e+10Hz 0.476729 -0.802735
+ 2.325e+10Hz 0.4708 -0.805639
+ 2.3325e+10Hz 0.464838 -0.808496
+ 2.34e+10Hz 0.458842 -0.811304
+ 2.3475e+10Hz 0.452816 -0.814064
+ 2.355e+10Hz 0.446761 -0.816774
+ 2.3625e+10Hz 0.440679 -0.819437
+ 2.37e+10Hz 0.434571 -0.82205
+ 2.3775e+10Hz 0.428439 -0.824617
+ 2.385e+10Hz 0.422284 -0.827136
+ 2.3925e+10Hz 0.416107 -0.82961
+ 2.4e+10Hz 0.40991 -0.83204
+ 2.4075e+10Hz 0.403693 -0.834426
+ 2.415e+10Hz 0.397455 -0.83677
+ 2.4225e+10Hz 0.391198 -0.839074
+ 2.43e+10Hz 0.384922 -0.84134
+ 2.4375e+10Hz 0.378625 -0.843567
+ 2.445e+10Hz 0.372307 -0.845758
+ 2.4525e+10Hz 0.365966 -0.847914
+ 2.46e+10Hz 0.359603 -0.850035
+ 2.4675e+10Hz 0.353215 -0.852122
+ 2.475e+10Hz 0.346801 -0.854176
+ 2.4825e+10Hz 0.340358 -0.856197
+ 2.49e+10Hz 0.333886 -0.858184
+ 2.4975e+10Hz 0.327382 -0.860137
+ 2.505e+10Hz 0.320845 -0.862055
+ 2.5125e+10Hz 0.314273 -0.863936
+ 2.52e+10Hz 0.307665 -0.86578
+ 2.5275e+10Hz 0.301018 -0.867585
+ 2.535e+10Hz 0.294333 -0.869347
+ 2.5425e+10Hz 0.287607 -0.871066
+ 2.55e+10Hz 0.280841 -0.872739
+ 2.5575e+10Hz 0.274034 -0.874362
+ 2.565e+10Hz 0.267187 -0.875934
+ 2.5725e+10Hz 0.2603 -0.877452
+ 2.58e+10Hz 0.253373 -0.878912
+ 2.5875e+10Hz 0.246409 -0.880313
+ 2.595e+10Hz 0.239409 -0.881652
+ 2.6025e+10Hz 0.232374 -0.882927
+ 2.61e+10Hz 0.225307 -0.884135
+ 2.6175e+10Hz 0.21821 -0.885275
+ 2.625e+10Hz 0.211087 -0.886347
+ 2.6325e+10Hz 0.203939 -0.887348
+ 2.64e+10Hz 0.196771 -0.888279
+ 2.6475e+10Hz 0.189585 -0.88914
+ 2.655e+10Hz 0.182383 -0.88993
+ 2.6625e+10Hz 0.175169 -0.89065
+ 2.67e+10Hz 0.167945 -0.891302
+ 2.6775e+10Hz 0.160714 -0.891888
+ 2.685e+10Hz 0.153477 -0.892408
+ 2.6925e+10Hz 0.146237 -0.892865
+ 2.7e+10Hz 0.138994 -0.893262
+ 2.7075e+10Hz 0.13175 -0.893601
+ 2.715e+10Hz 0.124505 -0.893885
+ 2.7225e+10Hz 0.11726 -0.894115
+ 2.73e+10Hz 0.110012 -0.894295
+ 2.7375e+10Hz 0.102762 -0.894427
+ 2.745e+10Hz 0.0955073 -0.894513
+ 2.7525e+10Hz 0.0882469 -0.894556
+ 2.76e+10Hz 0.0809783 -0.894555
+ 2.7675e+10Hz 0.073699 -0.894513
+ 2.775e+10Hz 0.0664062 -0.894429
+ 2.7825e+10Hz 0.0590969 -0.894305
+ 2.79e+10Hz 0.0517682 -0.894138
+ 2.7975e+10Hz 0.0444171 -0.893929
+ 2.805e+10Hz 0.0370408 -0.893676
+ 2.8125e+10Hz 0.0296366 -0.893375
+ 2.82e+10Hz 0.0222022 -0.893025
+ 2.8275e+10Hz 0.0147356 -0.892623
+ 2.835e+10Hz 0.00723522 -0.892164
+ 2.8425e+10Hz -0.000299822 -0.891644
+ 2.85e+10Hz -0.00786994 -0.89106
+ 2.8575e+10Hz -0.0154749 -0.890407
+ 2.865e+10Hz -0.0231137 -0.88968
+ 2.8725e+10Hz -0.0307848 -0.888875
+ 2.88e+10Hz -0.038486 -0.887988
+ 2.8875e+10Hz -0.0462141 -0.887014
+ 2.895e+10Hz -0.0539658 -0.88595
+ 2.9025e+10Hz -0.0617367 -0.884792
+ 2.91e+10Hz -0.0695223 -0.883538
+ 2.9175e+10Hz -0.0773174 -0.882186
+ 2.925e+10Hz -0.0851168 -0.880735
+ 2.9325e+10Hz -0.0929147 -0.879183
+ 2.94e+10Hz -0.100706 -0.877532
+ 2.9475e+10Hz -0.108484 -0.875781
+ 2.955e+10Hz -0.116244 -0.873934
+ 2.9625e+10Hz -0.123981 -0.871993
+ 2.97e+10Hz -0.13169 -0.869961
+ 2.9775e+10Hz -0.139367 -0.867842
+ 2.985e+10Hz -0.147008 -0.865641
+ 2.9925e+10Hz -0.154612 -0.863363
+ 3e+10Hz -0.162175 -0.861013
+ ]

.ENDS

.SUBCKT IHP_PDK_basic_components_cap_cmim  gnd P1 P2  l=7.0u w=7.0u
X1 P1 P2 cap_cmim l={l} w={w}
.ENDS
  

.SUBCKT IHP_PDK_basic_components_rhigh  gnd P1 P2 w=1.0e-6 l=0.5e-6 m=1
X1 P1 P2 rhigh w={w} l={l} m={m}
.ENDS
  

.SUBCKT IHP_PDK_nonlinear_components_sg13_lv_nmos  gnd d g s b w=0.35u l=0.34u ng=1 m=1 as=0 ad=0 pd=0 ps=0 trise=0 z1=0.346e-6 z2=0.38e-6 wmin=0.15e-6 rfmode=0 pre_layout=1 mlist=1
X1 d g s b  sg13_lv_nmos w={w} l={l} ng={ng} m={m} as={as} ad={ad} pd={pd} 
+ ps={ps} trise={trise} z1={z1} z2={z2} wmin={wmin} rfmode={rfmode} pre_layout={pre_layout} 
.ENDS
  

.SUBCKT IHP_PDK_basic_components_rppd  gnd P1 P2 w=1.0e-6 l=0.5e-6 m=1
X1 P1 P2 rppd w={w} l={l} m={m}
.ENDS
  

IProbe:Pr1 _net0 _net1
IProbe:Pr2 _net2 _net3
Vdc:Vpol1 _net4 gnd U="1.2 V"
SPfile:Lb1 _net5 _net6 File="{/home/userproj/microelectronics/projects/ZigBee/Inductance/lib_ind_param_s/Ind_1P_3nH_High_Q_simu.s1p}" Data="rectangular" Interpolator="linear" duringDC="open"
SPfile:Lb2 _net7 gnd File="{/home/userproj/microelectronics/projects/ZigBee/Inductance/lib_ind_param_s/Ind_1P_3nH_High_Q_simu.s1p}" Data="rectangular" Interpolator="linear" duringDC="open"
Sub:cap_cmim1 _net8 _net7 Type="IHP_PDK_basic_components_cap_cmim" l="36.936u" w="36.936u"
Sub:cap_cmim3 _net7 gnd Type="IHP_PDK_basic_components_cap_cmim" l="23.015u" w="23.015u"
Vdc:Vdd1 _net5 gnd U="1.2 V"
Sub:rhigh1 _net5 _net6 Type="IHP_PDK_basic_components_rhigh" w="11.552u" l="42.298u" m="1"
Sub:mn1 _net6 _net5 _net0 gnd Type="IHP_PDK_nonlinear_components_sg13_lv_nmos" w="58.8u" l="130n" ng="20" m="1" as="0" ad="0" pd="0" ps="0" trise="0" z1="0.346e-6" z2="0.38e-6" wmin="0.15e-6" rfmode="0" pre_layout="1"
Sub:mn3 _net3 _net3 gnd gnd Type="IHP_PDK_nonlinear_components_sg13_lv_nmos" w="w2" l="l2" ng="1" m="1" as="0" ad="0" pd="0" ps="0" trise="0" z1="0.346e-6" z2="0.38e-6" wmin="0.15e-6" rfmode="0" pre_layout="1"
Sub:mn2 _net1 _net3 _net7 gnd Type="IHP_PDK_nonlinear_components_sg13_lv_nmos" w="w1" l="l1" ng="20" m="1" as="0" ad="0" pd="0" ps="0" trise="0" z1="0.346e-6" z2="0.38e-6" wmin="0.15e-6" rfmode="0" pre_layout="1"
Sub:cap_cmim2 _net5 _net6 Type="IHP_PDK_basic_components_cap_cmim" l="lwmim2" w="lwmim2"
Sub:rpol _net4 _net2 Type="IHP_PDK_basic_components_rppd" w="21.262u" l="36.772u" m="1"
Vac:V1 _net8 gnd U="1.2 V" f="1 kHz" Phase="0" Theta="0"
